// Generated for: spectre
// Generated on: Feb 28 21:45:58 2018
// Design library name: ajgrosze_scratch
// Design cell name: nmos_3stack_sim
// Design view name: schematic
simulator lang=spectre
global 0 vss!
