// Generated for: spectre
// Generated on: Feb 12 22:20:20 2018
// Design library name: ajgrosze_scratch
// Design cell name: q1_an
// Design view name: schematic
simulator lang=spectre
global 0
