simulator lang=spectre
include "pmos.scs"
