// Generated for: spectre
// Generated on: Feb 17 00:29:03 2018
// Design library name: ajgrosze_scratch
// Design cell name: pmos_vth
// Design view name: schematic
simulator lang=spectre
global 0
