// Generated for: spectre
// Generated on: Mar  8 18:36:38 2018
// Design library name: ajgrosze_scratch
// Design cell name: inv_chain
// Design view name: schematic
simulator lang=spectre
global 0 vdd!
