// Generated for: spectre
// Generated on: Feb 17 00:16:56 2018
// Design library name: ajgrosze_scratch
// Design cell name: nmos_vth
// Design view name: schematic
simulator lang=spectre
global 0
